16
Lattice="5.08575768899054 0.0 0.0 0.0 4.40439535615784 1.24766366054662e-15 0.0 0.0 30.3812594112192" Properties=species:S:1:pos:R:3 pbc="T T T"
Cu      -0.00000000       1.46813179       0.00000000
Cu      -0.00000000       2.93626357       2.07625188
Cu       0.00000000       0.00000000       4.15250376
Cu      -0.00000000       1.46813179       6.22875565
Cu       1.27143942       3.67032946       0.00000000
Cu       1.27143942       0.73406589       2.07625188
Cu       1.27143942       3.67032946       6.22875565
Cu       1.27143942       2.20219768       4.15250376
Cu       2.54287884       1.46813179       0.00000000
Cu       2.54287884       2.93626357       2.07625188
Cu       2.54287884       0.00000000       4.15250376
Cu       2.54287884       1.46813179       6.22875565
Cu       3.81431827       3.67032946       0.00000000
Cu       3.81431827       0.73406589       2.07625188
Cu       3.81431827       3.67032946       6.22875565
Cu       3.81431827       2.20219768       4.15250376
