16
Lattice="5.61142527 0.0 0.0 -2.80571263 4.85963683 0.0 0.0 0.0 18.87256432" Properties=species:S:1:pos:R:3:momenta:R:3:forces:R:3 source=cand100 step=20 confid=100 energy=-92.830764 pbc="T T T"
Pt       0.71147800       0.68287300       2.26008000      -3.52804577       3.16003001      -2.83318514       0.18162800      -0.46523200       0.29301200
Pt      -0.65467000       1.45788000       0.00000000       0.00000000       0.00000000       0.00000000       0.00000000       0.00000000       0.00000000
Pt      -0.65515400       1.45060000       6.87043000       0.16421189      -0.63742793       1.77933536       0.16992500       0.08724090       0.16934400
Pt       0.72429100       2.24622000       4.53621000      -2.38485337      -1.95408625      -2.15790700       0.48205100       0.37241900       0.13571400
Pt       3.53544000       0.64275900       2.28013000      -1.76006270      -0.51630447      -0.77486484       0.10730500      -0.00083415       0.38242800
Pt       2.15104000       1.45788000       0.00000000       0.00000000       0.00000000       0.00000000       0.00000000       0.00000000       0.00000000
Pt       2.17618000       1.48447000       6.85582000       2.44620257       2.48816788       0.25063204      -0.23239300      -0.27868300       0.01322190
Pt       3.58301000       2.26556000       4.58236000       2.26511418      -0.33611180       2.10329052      -0.43287000      -0.07791310      -0.36100100
Pt      -0.63284200       3.08380000       2.28556000       1.93450574       0.68629478      -0.41013798      -0.35130800       0.12785600       0.12623100
Pt      -2.05753000       3.88770000       0.00000000       0.00000000       0.00000000       0.00000000       0.00000000       0.00000000       0.00000000
Pt      -2.07270000       3.87479000       6.88452000      -1.21801500      -1.12232097       3.07049871       0.28603500       0.18827000       0.05384840
Pt      -0.68448900       4.68964000       4.54905000      -3.02142332      -0.75406887      -0.95306351       0.41267300       0.13552900       0.04174550
Pt       2.16414000       3.05998000       2.25633000       1.36686774      -1.58175280      -3.02291286       0.09016610       0.27294800       0.55510300
Pt       0.74819000       3.88770000       0.00000000       0.00000000       0.00000000       0.00000000       0.00000000       0.00000000       0.00000000
Pt       0.76592400       3.88721000       6.87119000       1.70176606      -0.02844446       1.70943024      -0.24446000      -0.02413700      -0.08582630
Pt       2.17813000       4.70640000       4.58764000       2.05580398       0.57732398       2.57914901      -0.44636500      -0.35724700      -0.39048900
18
Lattice="5.610200000000001 0.0 0.0 -2.8051 4.85857572 0.0 0.0 0.0 18.871" Properties=species:S:1:pos:R:3:momenta:R:3:forces:R:3 source=cand96 step=20 confid=96 energy=-108.59487 pbc="T T T"
C        2.63270000       0.11359000       8.85397000      -0.16934043       0.32020587      -0.10670668       1.02130000      -0.46569800       2.28422000
O        2.79193000       0.05149260      10.02500000       0.38959419       0.38962351       0.18224246      -0.69036600       0.28175100      -2.19677000
Pt       1.40255000       2.42928000       0.00000000       0.00000000       0.00000000       0.00000000       0.00000000       0.00000000       0.00000000
Pt       4.20765000       2.42928000       0.00000000       0.00000000       0.00000000       0.00000000       0.00000000       0.00000000       0.00000000
Pt       2.80509000       0.00000000       0.00000000       0.00000000       0.00000000       0.00000000       0.00000000       0.00000000       0.00000000
Pt       2.81518000       1.64665000       2.27700000       1.04555205       2.45134645      -1.12871011       0.06127080      -0.36345900       0.26012000
Pt       0.01641910       1.64150000       2.28967000       1.50366315       1.94635255      -0.02800237      -0.18160700      -0.36175600      -0.00223415
Pt       1.41981000       4.04015000       2.31495000       1.66887304      -0.57565967       2.32197490      -0.06187230       0.41086000      -0.22171200
Pt      -1.38961000       4.04846000       2.28048000       1.29205508       0.12664370      -0.97801033       0.00290484       0.22880000      -0.02188190
Pt       2.81109000       3.26976000       4.54200000       0.30628325       2.02954835      -0.53528518      -0.03835520      -0.42551500       0.05884430
Pt       4.15994000       0.78410400       4.60270000      -2.98257611      -1.97682259       2.52091791      -0.09647590       0.17970900      -0.26242700
Pt       1.37279000       0.79091500       4.55438000      -4.63884565      -1.48408265      -1.50061853       0.39755300       0.21061800      -0.03830610
Pt       0.00276608       3.23900000       4.52615000       0.05555727      -2.73394204      -4.02946477      -0.09878260       0.07672580       0.44719900
Pt      -1.38498000       2.42058000       6.81032000       0.85434472      -2.14114471       0.59093044       0.03899820       0.31093900       0.03372940
Pt       1.41431000       2.43887000       6.81913000       0.84682751      -0.34238574       1.61602415      -0.09115570       0.34653900      -0.08957380
Pt       0.02083470       0.01963180       6.83619000       1.27307238       0.02279930       3.24352371      -0.23017400      -0.21833900       0.06074590
Pt       2.80095000       0.04005440       7.00818000      -1.50063045       1.93478180      -1.15896565      -0.09049300      -0.24869200       0.20499700
Pt       0.00000000       0.00000000       0.00000000       0.00000000       0.00000000       0.00000000       0.00000000       0.00000000       0.00000000
16
Lattice="5.61142527 0.0 0.0 -2.80571263 4.85963683 0.0 0.0 0.0 18.87256432" Properties=species:S:1:pos:R:3:momenta:R:3:forces:R:3 source=cand100 step=20 confid=100 energy=-92.830764 pbc="T T T"
Pt       0.71147800       0.68287300       2.26008000      -3.52804577       3.16003001      -2.83318514       0.18162800      -0.46523200       0.29301200
Pt      -0.65467000       1.45788000       0.00000000       0.00000000       0.00000000       0.00000000       0.00000000       0.00000000       0.00000000
Pt      -0.65515400       1.45060000       6.87043000       0.16421189      -0.63742793       1.77933536       0.16992500       0.08724090       0.16934400
Pt       0.72429100       2.24622000       4.53621000      -2.38485337      -1.95408625      -2.15790700       0.48205100       0.37241900       0.13571400
Pt       3.53544000       0.64275900       2.28013000      -1.76006270      -0.51630447      -0.77486484       0.10730500      -0.00083415       0.38242800
Pt       2.15104000       1.45788000       0.00000000       0.00000000       0.00000000       0.00000000       0.00000000       0.00000000       0.00000000
Pt       2.17618000       1.48447000       6.85582000       2.44620257       2.48816788       0.25063204      -0.23239300      -0.27868300       0.01322190
Pt       3.58301000       2.26556000       4.58236000       2.26511418      -0.33611180       2.10329052      -0.43287000      -0.07791310      -0.36100100
Pt      -0.63284200       3.08380000       2.28556000       1.93450574       0.68629478      -0.41013798      -0.35130800       0.12785600       0.12623100
Pt      -2.05753000       3.88770000       0.00000000       0.00000000       0.00000000       0.00000000       0.00000000       0.00000000       0.00000000
Pt      -2.07270000       3.87479000       6.88452000      -1.21801500      -1.12232097       3.07049871       0.28603500       0.18827000       0.05384840
Pt      -0.68448900       4.68964000       4.54905000      -3.02142332      -0.75406887      -0.95306351       0.41267300       0.13552900       0.04174550
Pt       2.16414000       3.05998000       2.25633000       1.36686774      -1.58175280      -3.02291286       0.09016610       0.27294800       0.55510300
Pt       0.74819000       3.88770000       0.00000000       0.00000000       0.00000000       0.00000000       0.00000000       0.00000000       0.00000000
Pt       0.76592400       3.88721000       6.87119000       1.70176606      -0.02844446       1.70943024      -0.24446000      -0.02413700      -0.08582630
Pt       2.17813000       4.70640000       4.58764000       2.05580398       0.57732398       2.57914901      -0.44636500      -0.35724700      -0.39048900
18
Lattice="5.610200000000001 0.0 0.0 -2.8051 4.85857572 0.0 0.0 0.0 18.871" Properties=species:S:1:pos:R:3:momenta:R:3:forces:R:3 source=cand96 step=20 confid=96 energy=-108.59487 pbc="T T T"
C        2.63270000       0.11359000       8.85397000      -0.16934043       0.32020587      -0.10670668       1.02130000      -0.46569800       2.28422000
O        2.79193000       0.05149260      10.02500000       0.38959419       0.38962351       0.18224246      -0.69036600       0.28175100      -2.19677000
Pt       1.40255000       2.42928000       0.00000000       0.00000000       0.00000000       0.00000000       0.00000000       0.00000000       0.00000000
Pt       4.20765000       2.42928000       0.00000000       0.00000000       0.00000000       0.00000000       0.00000000       0.00000000       0.00000000
Pt       2.80509000       0.00000000       0.00000000       0.00000000       0.00000000       0.00000000       0.00000000       0.00000000       0.00000000
Pt       2.81518000       1.64665000       2.27700000       1.04555205       2.45134645      -1.12871011       0.06127080      -0.36345900       0.26012000
Pt       0.01641910       1.64150000       2.28967000       1.50366315       1.94635255      -0.02800237      -0.18160700      -0.36175600      -0.00223415
Pt       1.41981000       4.04015000       2.31495000       1.66887304      -0.57565967       2.32197490      -0.06187230       0.41086000      -0.22171200
Pt      -1.38961000       4.04846000       2.28048000       1.29205508       0.12664370      -0.97801033       0.00290484       0.22880000      -0.02188190
Pt       2.81109000       3.26976000       4.54200000       0.30628325       2.02954835      -0.53528518      -0.03835520      -0.42551500       0.05884430
Pt       4.15994000       0.78410400       4.60270000      -2.98257611      -1.97682259       2.52091791      -0.09647590       0.17970900      -0.26242700
Pt       1.37279000       0.79091500       4.55438000      -4.63884565      -1.48408265      -1.50061853       0.39755300       0.21061800      -0.03830610
Pt       0.00276608       3.23900000       4.52615000       0.05555727      -2.73394204      -4.02946477      -0.09878260       0.07672580       0.44719900
Pt      -1.38498000       2.42058000       6.81032000       0.85434472      -2.14114471       0.59093044       0.03899820       0.31093900       0.03372940
Pt       1.41431000       2.43887000       6.81913000       0.84682751      -0.34238574       1.61602415      -0.09115570       0.34653900      -0.08957380
Pt       0.02083470       0.01963180       6.83619000       1.27307238       0.02279930       3.24352371      -0.23017400      -0.21833900       0.06074590
Pt       2.80095000       0.04005440       7.00818000      -1.50063045       1.93478180      -1.15896565      -0.09049300      -0.24869200       0.20499700
Pt       0.00000000       0.00000000       0.00000000       0.00000000       0.00000000       0.00000000       0.00000000       0.00000000       0.00000000
16
Lattice="5.61142527 0.0 0.0 -2.80571263 4.85963683 0.0 0.0 0.0 18.87256432" Properties=species:S:1:pos:R:3:momenta:R:3:forces:R:3 source=cand100 step=20 confid=100 energy=-92.830764 pbc="T T T"
Pt       0.71147800       0.68287300       2.26008000      -3.52804577       3.16003001      -2.83318514       0.18162800      -0.46523200       0.29301200
Pt      -0.65467000       1.45788000       0.00000000       0.00000000       0.00000000       0.00000000       0.00000000       0.00000000       0.00000000
Pt      -0.65515400       1.45060000       6.87043000       0.16421189      -0.63742793       1.77933536       0.16992500       0.08724090       0.16934400
Pt       0.72429100       2.24622000       4.53621000      -2.38485337      -1.95408625      -2.15790700       0.48205100       0.37241900       0.13571400
Pt       3.53544000       0.64275900       2.28013000      -1.76006270      -0.51630447      -0.77486484       0.10730500      -0.00083415       0.38242800
Pt       2.15104000       1.45788000       0.00000000       0.00000000       0.00000000       0.00000000       0.00000000       0.00000000       0.00000000
Pt       2.17618000       1.48447000       6.85582000       2.44620257       2.48816788       0.25063204      -0.23239300      -0.27868300       0.01322190
Pt       3.58301000       2.26556000       4.58236000       2.26511418      -0.33611180       2.10329052      -0.43287000      -0.07791310      -0.36100100
Pt      -0.63284200       3.08380000       2.28556000       1.93450574       0.68629478      -0.41013798      -0.35130800       0.12785600       0.12623100
Pt      -2.05753000       3.88770000       0.00000000       0.00000000       0.00000000       0.00000000       0.00000000       0.00000000       0.00000000
Pt      -2.07270000       3.87479000       6.88452000      -1.21801500      -1.12232097       3.07049871       0.28603500       0.18827000       0.05384840
Pt      -0.68448900       4.68964000       4.54905000      -3.02142332      -0.75406887      -0.95306351       0.41267300       0.13552900       0.04174550
Pt       2.16414000       3.05998000       2.25633000       1.36686774      -1.58175280      -3.02291286       0.09016610       0.27294800       0.55510300
Pt       0.74819000       3.88770000       0.00000000       0.00000000       0.00000000       0.00000000       0.00000000       0.00000000       0.00000000
Pt       0.76592400       3.88721000       6.87119000       1.70176606      -0.02844446       1.70943024      -0.24446000      -0.02413700      -0.08582630
Pt       2.17813000       4.70640000       4.58764000       2.05580398       0.57732398       2.57914901      -0.44636500      -0.35724700      -0.39048900
18
Lattice="5.610200000000001 0.0 0.0 -2.8051 4.85857572 0.0 0.0 0.0 18.871" Properties=species:S:1:pos:R:3:momenta:R:3:forces:R:3 source=cand96 step=20 confid=96 energy=-108.59487 pbc="T T T"
C        2.63270000       0.11359000       8.85397000      -0.16934043       0.32020587      -0.10670668       1.02130000      -0.46569800       2.28422000
O        2.79193000       0.05149260      10.02500000       0.38959419       0.38962351       0.18224246      -0.69036600       0.28175100      -2.19677000
Pt       1.40255000       2.42928000       0.00000000       0.00000000       0.00000000       0.00000000       0.00000000       0.00000000       0.00000000
Pt       4.20765000       2.42928000       0.00000000       0.00000000       0.00000000       0.00000000       0.00000000       0.00000000       0.00000000
Pt       2.80509000       0.00000000       0.00000000       0.00000000       0.00000000       0.00000000       0.00000000       0.00000000       0.00000000
Pt       2.81518000       1.64665000       2.27700000       1.04555205       2.45134645      -1.12871011       0.06127080      -0.36345900       0.26012000
Pt       0.01641910       1.64150000       2.28967000       1.50366315       1.94635255      -0.02800237      -0.18160700      -0.36175600      -0.00223415
Pt       1.41981000       4.04015000       2.31495000       1.66887304      -0.57565967       2.32197490      -0.06187230       0.41086000      -0.22171200
Pt      -1.38961000       4.04846000       2.28048000       1.29205508       0.12664370      -0.97801033       0.00290484       0.22880000      -0.02188190
Pt       2.81109000       3.26976000       4.54200000       0.30628325       2.02954835      -0.53528518      -0.03835520      -0.42551500       0.05884430
Pt       4.15994000       0.78410400       4.60270000      -2.98257611      -1.97682259       2.52091791      -0.09647590       0.17970900      -0.26242700
Pt       1.37279000       0.79091500       4.55438000      -4.63884565      -1.48408265      -1.50061853       0.39755300       0.21061800      -0.03830610
Pt       0.00276608       3.23900000       4.52615000       0.05555727      -2.73394204      -4.02946477      -0.09878260       0.07672580       0.44719900
Pt      -1.38498000       2.42058000       6.81032000       0.85434472      -2.14114471       0.59093044       0.03899820       0.31093900       0.03372940
Pt       1.41431000       2.43887000       6.81913000       0.84682751      -0.34238574       1.61602415      -0.09115570       0.34653900      -0.08957380
Pt       0.02083470       0.01963180       6.83619000       1.27307238       0.02279930       3.24352371      -0.23017400      -0.21833900       0.06074590
Pt       2.80095000       0.04005440       7.00818000      -1.50063045       1.93478180      -1.15896565      -0.09049300      -0.24869200       0.20499700
Pt       0.00000000       0.00000000       0.00000000       0.00000000       0.00000000       0.00000000       0.00000000       0.00000000       0.00000000
16
Lattice="5.61142527 0.0 0.0 -2.80571263 4.85963683 0.0 0.0 0.0 18.87256432" Properties=species:S:1:pos:R:3:momenta:R:3:forces:R:3 source=cand100 step=20 confid=100 energy=-92.830764 pbc="T T T"
Pt       0.71147800       0.68287300       2.26008000      -3.52804577       3.16003001      -2.83318514       0.18162800      -0.46523200       0.29301200
Pt      -0.65467000       1.45788000       0.00000000       0.00000000       0.00000000       0.00000000       0.00000000       0.00000000       0.00000000
Pt      -0.65515400       1.45060000       6.87043000       0.16421189      -0.63742793       1.77933536       0.16992500       0.08724090       0.16934400
Pt       0.72429100       2.24622000       4.53621000      -2.38485337      -1.95408625      -2.15790700       0.48205100       0.37241900       0.13571400
Pt       3.53544000       0.64275900       2.28013000      -1.76006270      -0.51630447      -0.77486484       0.10730500      -0.00083415       0.38242800
Pt       2.15104000       1.45788000       0.00000000       0.00000000       0.00000000       0.00000000       0.00000000       0.00000000       0.00000000
Pt       2.17618000       1.48447000       6.85582000       2.44620257       2.48816788       0.25063204      -0.23239300      -0.27868300       0.01322190
Pt       3.58301000       2.26556000       4.58236000       2.26511418      -0.33611180       2.10329052      -0.43287000      -0.07791310      -0.36100100
Pt      -0.63284200       3.08380000       2.28556000       1.93450574       0.68629478      -0.41013798      -0.35130800       0.12785600       0.12623100
Pt      -2.05753000       3.88770000       0.00000000       0.00000000       0.00000000       0.00000000       0.00000000       0.00000000       0.00000000
Pt      -2.07270000       3.87479000       6.88452000      -1.21801500      -1.12232097       3.07049871       0.28603500       0.18827000       0.05384840
Pt      -0.68448900       4.68964000       4.54905000      -3.02142332      -0.75406887      -0.95306351       0.41267300       0.13552900       0.04174550
Pt       2.16414000       3.05998000       2.25633000       1.36686774      -1.58175280      -3.02291286       0.09016610       0.27294800       0.55510300
Pt       0.74819000       3.88770000       0.00000000       0.00000000       0.00000000       0.00000000       0.00000000       0.00000000       0.00000000
Pt       0.76592400       3.88721000       6.87119000       1.70176606      -0.02844446       1.70943024      -0.24446000      -0.02413700      -0.08582630
Pt       2.17813000       4.70640000       4.58764000       2.05580398       0.57732398       2.57914901      -0.44636500      -0.35724700      -0.39048900
18
Lattice="5.610200000000001 0.0 0.0 -2.8051 4.85857572 0.0 0.0 0.0 18.871" Properties=species:S:1:pos:R:3:momenta:R:3:forces:R:3 source=cand96 step=20 confid=96 energy=-108.59487 pbc="T T T"
C        2.63270000       0.11359000       8.85397000      -0.16934043       0.32020587      -0.10670668       1.02130000      -0.46569800       2.28422000
O        2.79193000       0.05149260      10.02500000       0.38959419       0.38962351       0.18224246      -0.69036600       0.28175100      -2.19677000
Pt       1.40255000       2.42928000       0.00000000       0.00000000       0.00000000       0.00000000       0.00000000       0.00000000       0.00000000
Pt       4.20765000       2.42928000       0.00000000       0.00000000       0.00000000       0.00000000       0.00000000       0.00000000       0.00000000
Pt       2.80509000       0.00000000       0.00000000       0.00000000       0.00000000       0.00000000       0.00000000       0.00000000       0.00000000
Pt       2.81518000       1.64665000       2.27700000       1.04555205       2.45134645      -1.12871011       0.06127080      -0.36345900       0.26012000
Pt       0.01641910       1.64150000       2.28967000       1.50366315       1.94635255      -0.02800237      -0.18160700      -0.36175600      -0.00223415
Pt       1.41981000       4.04015000       2.31495000       1.66887304      -0.57565967       2.32197490      -0.06187230       0.41086000      -0.22171200
Pt      -1.38961000       4.04846000       2.28048000       1.29205508       0.12664370      -0.97801033       0.00290484       0.22880000      -0.02188190
Pt       2.81109000       3.26976000       4.54200000       0.30628325       2.02954835      -0.53528518      -0.03835520      -0.42551500       0.05884430
Pt       4.15994000       0.78410400       4.60270000      -2.98257611      -1.97682259       2.52091791      -0.09647590       0.17970900      -0.26242700
Pt       1.37279000       0.79091500       4.55438000      -4.63884565      -1.48408265      -1.50061853       0.39755300       0.21061800      -0.03830610
Pt       0.00276608       3.23900000       4.52615000       0.05555727      -2.73394204      -4.02946477      -0.09878260       0.07672580       0.44719900
Pt      -1.38498000       2.42058000       6.81032000       0.85434472      -2.14114471       0.59093044       0.03899820       0.31093900       0.03372940
Pt       1.41431000       2.43887000       6.81913000       0.84682751      -0.34238574       1.61602415      -0.09115570       0.34653900      -0.08957380
Pt       0.02083470       0.01963180       6.83619000       1.27307238       0.02279930       3.24352371      -0.23017400      -0.21833900       0.06074590
Pt       2.80095000       0.04005440       7.00818000      -1.50063045       1.93478180      -1.15896565      -0.09049300      -0.24869200       0.20499700
Pt       0.00000000       0.00000000       0.00000000       0.00000000       0.00000000       0.00000000       0.00000000       0.00000000       0.00000000
