43
Lattice="5.6102 0.0 0.0 -2.8051 4.85857572 0.0 0.0 0.0 18.871" Properties=species:S:1:pos:R:3:forces:R:3 confid=117 energy=-216.87898259 pbc="T T T"
Pt       0.00000000       0.00000000       0.00000000      -0.02630640      -0.01190507      -0.01121894
Pt       1.40255000       2.42927999       0.00000000      -0.09338908       0.10303536      -0.01921346
Pt       4.20765000       2.42927999       0.00000000       0.04599782       0.03634430      -0.04100422
Pt       2.80509001       0.00000000       0.00000000       0.05153998      -0.12612487      -0.00212469
Pt       2.80511997       1.61950001       2.29038006       0.14045666       0.02126206      -0.14951157
Pt       0.00003001       1.61950001       2.29038006      -0.16333197      -0.02228273       0.00508874
Pt       1.40256997       4.04879001       2.29038006       0.00870106       0.14820566      -0.08261105
Pt      -1.40251999       4.04879001       2.29038006      -0.02596870      -0.04962773      -0.11591752
Pt       2.80168998       3.26709002       4.53230997       0.23133730      -0.11298718       0.62441045
Pt       4.18625999       0.78835298       4.60607991       0.61111178       0.40148081       0.03792097
Pt       1.40905003       0.79910598       4.50335997      -0.42200719       0.11338040       0.71454771
Pt      -0.00569169       3.23996002       4.52065996      -0.17217041      -0.50761988       0.31995081
Pt       4.23269001       2.34409001       6.98738008       0.00357627       0.15249451      -0.85295548
Pt       1.47302999       2.39218000       6.79657993      -0.10026721       0.02012315       0.27627424
Pt       0.05677901       0.01217622       7.16672006      -0.08960855      -0.36196447      -1.34702246
Pt       0.01390180       4.76459998       6.78898001       0.02341420       0.38753959       0.21148006
O       -0.51679401       3.98534002       9.76612992       4.31695060       0.73711741      -1.69914388
H       -1.40842001       3.92216998       9.92052999      -4.64525359       0.16510750       0.92063825
H        0.08125808       4.29112002      13.85289992       0.36181549       0.07537934      -1.30820892
O        3.78033001       1.89382000      11.48620006       0.24332964       0.77985004      -0.59571047
H        3.85561996       1.01295002      11.02660006       0.86370422       1.41903679      -0.04075011
H       -1.80639001       3.76075998      13.95359992       7.84490658       8.95574378       1.68214981
O        3.32717001       3.11090998      13.76220004      -6.72267049     -10.26350229      -3.23429791
H       -2.45206997       4.49749998      11.98150002      -0.70760221      -3.86713930       2.40052223
H        3.75554999       2.45885001      13.09560008      -0.33152565       1.35930011       1.14295293
O        0.32832501       0.35078100      11.41149996       0.45064746       2.59168404      -2.04284780
H        1.83139001       1.99420002       9.40048995      -0.65009714       3.18390287       1.05807438
H        2.75771000       1.11318001      15.25529998      -2.02133159      -1.51982333      -3.98574718
O        0.58493303       0.82897398      15.45989993       0.01971998      -3.52542928      -3.87073516
H        1.03212998       0.81679499      11.89690001       0.17728684       0.67259952      -0.45519828
H        0.43035597       1.03161001      16.37150001      -0.63078612      -0.91803131       1.69792542
O        2.97944002       1.42149998      16.06930000       6.01540098       2.19028627       1.94265737
H       -0.47490200       4.20460001       8.75153004       0.04166250      -0.43979125       1.17936049
H        3.06500999       0.47065601      12.58409993      -1.26632663      -1.00144759       2.31607462
O        1.94274999       3.03457000       9.58882008       0.02165416      -0.88584681      -0.36676856
H       -1.19241003       2.62162002      11.12109999      -1.01189084      -2.38908800       0.39894330
H        1.17071999       3.65058998       9.94059005       0.82577396      -2.66289027      -0.91923024
O        2.40870997       0.11938201      13.31269999       1.04586103       1.97597737      -1.34526646
H        2.41011000       1.42205002      16.77289995      -3.07985818      -0.35205813       2.33378072
H        0.65138599       2.51610998      14.66119995       0.83398268       0.48715218      -3.57915063
O        0.85302297       2.88427001      13.63830004      -2.41719597       1.30300077       5.15032574
H       -2.18911000       4.61003999      15.09030007      -0.79549617       4.34749482       2.80791622
H        1.13217000       2.11120002      13.22830001       1.19425288      -2.60993917      -1.15635948
43
Lattice="5.6102 0.0 0.0 -2.8051 4.85857572 0.0 0.0 0.0 18.871" Properties=species:S:1:pos:R:3:forces:R:3 confid=122 energy=-215.57644359 pbc="T T T"
Pt       0.00000000       0.00000000       0.00000000       0.00793202      -0.06797993      -0.15200397
Pt       1.40255000       2.42927999       0.00000000      -0.01509179       0.02152620       0.02310963
Pt       4.20765000       2.42927999       0.00000000      -0.20191077       0.20462918       0.47901867
Pt       2.80509001       0.00000000       0.00000000       0.03406982      -0.10820293      -0.18862997
Pt       2.80511997       1.61950001       2.29038006      -0.17817354      -0.06737955       0.40508337
Pt       0.00003001       1.61950001       2.29038006      -0.23038344       0.17967261       0.40863890
Pt       1.40256997       4.04879001       2.29038006      -0.10443298      -0.07629533       0.16798189
Pt      -1.40251999       4.04879001       2.29038006      -0.04208963      -0.09730900       0.14432614
Pt       2.71984998       3.22551999       4.60785001       0.09544636      -0.15064052      -0.19287344
Pt       4.07052002       0.79607399       4.62532003       0.30317317       1.21248605      -0.81218644
Pt       1.22660002       0.81125500       4.60807005       0.16029728       0.35662448       0.88201950
Pt      -0.16767898       3.36751998       4.67214993      -0.07019573      -1.35211867      -0.24466861
Pt      -1.47223000       2.72943002       7.21865003       0.13805208      -0.02734535      -4.46074656
Pt       1.30139997       2.55360001       7.06686001      -0.22112539      -0.65248641      -0.05033629
Pt       5.41043999       0.30791501       6.98724006       1.75738878      -0.27269490      -0.28848251
Pt       2.75290999       0.34128599       6.96562993      -1.98758654      -0.26118904      -1.00262073
O        3.93257999       0.07800638       8.60666002       0.19340237      -0.43911263       2.09790185
H        1.44410004       3.60808998       5.85084995       0.06772593       0.44626668      -0.65455301
H        1.08397000       3.90478002       8.58803000       0.10243840       0.57948385       0.29751454
O       -1.59048999       3.26222998       8.99723008      -1.40694677       2.32126642       4.28182229
H        1.15953998       2.76391002      11.45580001       0.02968538      -2.23312054      -1.16978084
H        3.32128000       0.57699401      12.30230004       0.95957889      -0.03942034       0.40815110
O        3.95503002       1.38450999      12.48290004       1.78014627      -4.35860565       1.01379546
H        0.42236004       3.98888999      10.85490000      -2.90352062       1.17381058      -4.96421999
H        2.22302001       1.42568000      14.83389998      -1.75973320       2.40300677       0.10136239
O        5.18554001       0.03468430      15.01350001      -0.89306286      -0.86508068      -0.79437529
H        2.16254999       4.70532001      14.04920002       0.79893142       0.80813233       1.64831623
H        4.34016996       1.32848002      16.68210006       0.13750750       1.06228540      -0.23196847
O       -2.11039000       4.15461999      12.09659992       0.32235668       0.31588975       3.43540996
H        0.19997000       0.79732002      15.10449993      -0.01311304       0.02338331      -0.74237408
H        2.55128998       4.04637000      12.31140002      -0.07963165      -0.16629396      -0.73438186
O        0.91879003       3.66752999      11.51830001       2.21247268       1.61654398       6.11379794
H       -1.98949998       4.02258999      11.18850003       0.01155938      -0.29272310      -3.28535765
H        4.78833998       1.24329000      11.89720006      -0.10296342      -0.36994232       0.60909510
O        4.03828003       2.29762998      16.67300009      -0.07413480      -0.65138025      -0.50736669
H        3.54435998       2.04235002      12.00989994      -2.39537976       4.81502941      -2.04634805
H       -0.82475402       2.93261002      16.55800002       0.13097060      -0.49059889      -0.14454814
O        1.42676000       2.07077001      14.63819998       0.74918546      -6.91702851      -2.68292361
H        2.18965001       1.34366001       9.82031007       1.88976512      -1.17648335      -1.27228550
H        1.49180001       2.87776000      15.01730006       1.27228067       4.55114245       2.85145464
O        1.35506998       1.73602002       9.97940996      -2.89759317       0.38592031       0.95726683
H        0.62520302       1.31143001       9.41890994       1.15787753       0.32882181       0.12944843
H       -2.22189000       4.10648000       8.90955995       1.26482532      -1.67248970       0.16751681
